--Link1--
%CPU=0-21
%chk=molecule
%Mem=1000MW
#HF/6-31G* SCF=tight Test Pop=MK iop(6/33=2) iop(6/42=6) opt
# iop(6/50=1)

remark line goes here

0   1
    C   27.2270000000        7.4950000000        4.7070000000     
    C   26.2960000000        6.8080000000        5.4920000000     
    C   25.6010000000        5.7300000000        4.9440000000     
    C   25.8280000000        5.3570000000        3.6220000000     
    C   26.7570000000        6.0470000000        2.8450000000     
    C   27.4590000000        7.1290000000        3.3770000000     
    N   28.3670000000        7.8060000000        2.6550000000     
    C   28.4840000000        7.7070000000        1.1870000000     
    C   27.3620000000        8.3590000000        0.4950000000     
    N   26.4960000000        8.8450000000       -0.0630000000     
    H   27.7510000000        8.2850000000        5.1150000000     
    H   26.1250000000        7.0960000000        6.4680000000     
    H   24.9190000000        5.2090000000        5.5180000000     
    H   25.3060000000        4.5650000000        3.2150000000     
    H   26.9270000000        5.7560000000        1.8700000000     
    H   28.9890000000        8.4020000000        3.1320000000     
    H   29.3960000000        8.1760000000        0.8820000000     
    H   28.4730000000        6.6690000000        0.9260000000     

lig_gcrt.gesp

lig_gcrt.gesp


